**$ENCRYPTED_LIB
**$INTERFACE
*$
* TPS55165-Q1
*****************************************************************************
* (C) Copyright 2017 Texas Instruments Incorporated. All rights reserved.                                            
*****************************************************************************
** This model is designed as an aid for customers of Texas Instruments.
** TI and its licensors and suppliers make no warranties, either expressed
** or implied, with respect to this model, including the warranties of 
** merchantability or fitness for a particular purpose.  The model is
** provided solely on an "as is" basis.  The entire risk as to its quality
** and performance is with the customer
*****************************************************************************
*
* This model is subject to change without notice. Texas Instruments
* Incorporated is not responsible for updating this model.
*
*****************************************************************************
*
** Released by: WEBENCH Design Center, Texas Instruments Inc.
* Part: TPS55165-Q1
* Date: 06DEC2017
* Model Type: TRANSIENT
* Simulator: PSPICE
* Simulator Version: 16.2.0.p001
* EVM Order Number: TPS5516xEVM
* EVM Users Guide: SLVUAY1 - November 2016
* Datasheet: SLVSD46 - JUNE 2017
* Topologies Supported: Buck-Boost
*
* Model Version: Final 1.00
*
*****************************************************************************
*
* Updates:
*
* Final 1.00
* Release to Web.
*
* Final 1.10
* Model changes:
* 	1. Low power mode implementation during boost mode is modified in driver block at BOOST LDRV signal
* 	2. IGN_PWRL dependency on EPROM_OK signal in steady state testbenches. This bug was found during sim integration
*	3. Added the pull-up current source at IGN_PWRL as per datasheet description
*
*****************************************************************************
*
* Model Usage Notes:
*
* 1. The following features have been modeled
*      a. Switching Characteristics and timing characteristics
*      b. Low power mode
*      c. Powergood and programmable delay
* 2. The following features have not been modeled. 
*      a. Peak current limit
*      b. Spread spectrum
*      c. Bootstrapping
*      d. Temperature effects and operating current
*
*****************************************************************************
.SUBCKT TPS55165-Q1_TRANS BST1 BST2 GND_0 GND_1 IGN IGN_PWRL L1 L2 PAD PG PG_DLY
+  PGND PS SS_EN VINL VINP VOS_FB VOUT VOUT_SENSE VREG VREG_Q PARAMS: STEADY_STATE=0
$CDNENCSTART
eee8c5c7a2bc4b01f045f303678664e7916da0bae22e8cb0bba041dd67c69ce448ea70148a9ac1670c8926c1ac5057c8ccfcd77bf87ca9dceab33c3d25fa9336
48a94d11d238250f401ec896602b407caff63d1b7f7fe8310e7661f689876c1411e5407554f8d3ff3f7e6e77891929416afd1e4dadb31a4c709787104a129417
0dea85bdd2f61705ac73e51ea6171029c85ef2d9aca7c7ceb26d0b34d74a1fa384dca83b953a8e598e1f68004bffe998f8a8540ab58237968745f0f67ef55c1a
a3f576b848cd34f9ac73e51ea61710290af06e50476a105b62d7fc06aea0b62b2a28d63fb3680ff5d00c28cee29fdb9acf244a0edf9ed76019bf6896db9e69d6
abc05a84349f7fe5a60fd3951de4fe9476cd1a77f91530c7755344e95b435694644126c9831a96bd4c27671258e4c01986438d1e16d75994694634ebdacaa746
a5c9b8400b4bbc27706b807646b80371ab93b66342c0e05e54fddf43619624f86e8a450c3f42680984dca83b953a8e598e1f68004bffe998218cd0a1f7bec64e
18c675ab596917cd706b807646b80371ab93b66342c0e05e404bbb0f29fffbec6e6489c01f242e70f302f93bea458c60fdaedb18c20b89e9c99819f993795bc4
76906fbde8718b4a84dca83b953a8e598e1f68004bffe998f8a8540ab58237962e12af961c6ef22c254e47aac0ec032b1abcaaead17fedab4dacec5fe1b00f43
081e84107dfbac3afb10ff64cffca9e92c923fec71cf1ac71933952b4dcad44ca68ba69006c80e09f1b6bc29d103b9156d913effe3ea9117403ee581ee888250
7b97c5c24f27b328706b807646b80371a3f5d5e383739f708726c8ee73e1a1b469dc6615ed5d8f8976083f94bec6c2f8809649fa7e6e5a1695c7039255515c12
fd80f3b49cb1eb4ba286ab8191b330075911b2e9db277617a5257eba54077ab5021166ac3753b7b831bbfa71d5efb6fe825b843a3aa9ddcd1f5df8e6d7772bdd
f0b11d08c7270e93706b807646b80371ab93b66342c0e05e27a07804c61fab3dd029080e608c99c084dca83b953a8e598e1f68004bffe998218cd0a1f7bec64e
fb6734c62788932b706b807646b80371e0fdc6fc685592353853a2906f8de9e6f721f0b5b07be92f0aa7f84109f67d296baa4c351fc5e3ad6c22f8338c178f33
9783ae8e4821c68fa223a4da0518f3d6324c1ceef361270363f488593ed23b238e27f9447d516eab7703e2cb3efef19fadd93f2a12dabde194d9036eb2e12d38
8767f397bff4c3a731bbfa71d5efb6fe102372497787b35c324c1ceef361270363f488593ed23b238e27f9447d516eab7703e2cb3efef19f8141c47b75aa1b14
1d46ebf9dafd9192706b807646b80371ab93b66342c0e05e7065c00e9ec073080dcb41d5046fbb8923bce6f7226acc639719bc0a329451d6cd4adb71031114d7
73d133e46a168f4acd9f9b0fe66d8ad1ebad3781d5525810445c0d66b8a4d572ce5ec34e6f8ad1cad3825afa40978700c02d85c6c46492d0e2de20d8963789d5
dd193872ff11d24b1d366f07aa3c5f4f47c6b1555096167c6e2c9428a427b45fb55aa79e2d78a7577f599b5942aea63b1a477f9adb6fca5560022da7636c6479
b454908ed904f092706b807646b80371d428a6bf916cf71310663c58ccd54f7862a1a63d43b20ce4bb908de67b25430e9468bc33991b7a95b552353bea1faef5
63db10175c9c76dc324c1ceef361270363f488593ed23b238e27f9447d516eab7703e2cb3efef19fadd93f2a12dabde1341a6b5a800be14571ce969966c057fc
fd80f3b49cb1eb4ba286ab8191b330075911b2e9db277617a5257eba54077ab5021166ac3753b7b831bbfa71d5efb6fe825b843a3aa9ddcd1f5df8e6d7772bdd
27931a65288a0a87706b807646b80371ab93b66342c0e05ee6b1abbe0599648f4eb8a4fb3e3631b823bce6f7226acc639719bc0a329451d6cd4adb71031114d7
73d133e46a168f4a239bdbe658d21d00608ad492ad45c2b5c90df4426d50ea0c66eaeb9fc4cc8ae13f74672b34679390e38d0cc29ccc2712e2029ea2293cb218
183ef8753bb530f3173c275d1c520b89644126c9831a96bd4c27671258e4c01986438d1e16d759940a09064bb8f48cca536810d58885a2f7e4003fc239f6f56e
3e2f6d3b6fa1f79e23bce6f7226acc639719bc0a329451d69246c56478628870c6f822b1bf48ae9eb835abb8f6e76aa0b0dff9551c1c7ac69149be29773a03b3
d9a8adbd30032c09706b807646b80371401ec896602b407c8718cd6c902c2792d3b99b01fef3c644631a60ef0727b6df959077e1cb04805d9c7a4bc0de56f663
2a76c18f665e8c270abfc569c2f15564652d022d18afbf482389fe19d547696c2e09782475d97371324c1ceef361270363f488593ed23b239ee033e22523808c
d177348d2deab5c2706b807646b803710d0f93f9f0505b78679fea28c6b2d2d92da085ac1302fd51478a87bc5b8e6cf947c6b1555096167c11a82e4a3975cada
6e8618a2d7b741a0706b807646b80371eed8a32b43fd8598270b3f0407123fb0fa9ce17199986e58712f7945e273ad0438641e3326a63184dee0daa97685233f
cfb935a8bfa83665706b807646b80371c8aee592a2b279014b9b8c3907edbbbce2ef47c11f7c0d27824c627622df74ab105a25debc97a23fc2b2e03305a8c1a7
32f945196658a473706b807646b803718a36bbc147b6ed65356e5f834aa118cada91f89291855a7d47c6b1555096167c6e2c9428a427b45f209feda867cf8d6a
dee6a0d9e6f8e763706b807646b80371c904574aac59a88d69a478b99ec5b27f56d0b86b4a7b9997c02a125e2ea812df75963efd3ee34e160ff63032dc4e41c4
bfd81d659a09e4b3d24b51ea77d68888824c627622df74ab105a25debc97a23ff58aaf56235b0f803c02e8c93a093897995814b55317358e86bfca48d5cf35d3
4b6085f2012636675a0aa31c52cddba976617f42cd5d956b4c27671258e4c01986438d1e16d759940a09064bb8f48cca536810d58885a2f7e4003fc239f6f56e
9eaf82adc2a1140dcd9f9b0fe66d8ad1bbeae1bc21a17ccb26597841fc0268c2ce5ec34e6f8ad1cac155dc336fd4118c3269a45726f57fa4403ee581ee888250
3e89966d7aea4e2e87862d153f5a6f270203fc4ca5cf23368675a01b2db95be723bce6f7226acc639719bc0a329451d69246c564786288706368974253716c36
a450357658c44a7922d1b8c60baaf46091a3bc308490481b6eac789fa26463b263e8db277105459456888adcd12906be60e809f063654691d38aff4e12555a5d
adb6d8e88213fe84706b807646b803718a36bbc147b6ed655d2205e6c0275b0b2254ae57d4263ab7bb6ee243faaf09ac23bce6f7226acc635e60bc2e73fe25f8
064c7d10b22fd68a908295b3613f26e6c16ccdf52a87248463d17fe958c50541c904574aac59a88dea6cb0bca49efa16dad4bb70f534f24cee7245f8530d1fff
32cd76a2a36328a96eac789fa26463b2516a35d03a699d2b6f98e48f2be46097b8f2536636d25d20e71f71e1875841714c27671258e4c019edf9617414cd3f43
e619f9502d588136706b807646b80371a7eeff398d568cda7ceadfa784acfd1ea3c42ff1f9662b6a20d731714716942947c6b1555096167c11a82e4a3975cada
81cffb48c4106de4706b807646b80371f15518302ece66cba7eeff398d568cda0f69cc98b0a9f74f1f3fb4c06dc9de0350fac0480a05a8f1403ee581ee888250
8794c3280b5dfd56706b807646b80371c904574aac59a88dc7cc788ca36c0e5e018e5bf17addb48854361ceba08d65b3493add1c9ab5e2757ec09cef15c57fb0
1933952b4dcad44c74c7e4af17ab9ceb84dca83b953a8e598e1f68004bffe998f8a8540ab58237962e12af961c6ef22c254e47aac0ec032bdaa7b40aadc26676
8767f397bff4c3a731bbfa71d5efb6fe825b843a3aa9ddcd23bce6f7226acc639719bc0a329451d69246c56478628870c6f822b1bf48ae9ec5e9103f3ddfd7fc
542e624003068874706b807646b80371a7997fca468312d01eeafc246f1dda681b9eef6c5aee8569f5f6974b03a332b926597841fc0268c2963bd4b10ab4a205
b33e0b51c26d73f5706b807646b803714305718b7b4d063b28db7af9b6b29177e2fb982162f852261933952b4dcad44c47c6b1555096167c11a82e4a3975cada
ee3eba97ab9b9664706b807646b80371c904574aac59a88d9419fa265bd3381236806a8e381bf9a04c27671258e4c01986438d1e16d75994694634ebdacaa746
e8522c7da5211d00706b807646b80371a7eeff398d568cda4b818f38ad1a7c3ae72e2397a09af0da9c6130a6298f9a4916f765d2c4154084eab33c3d25fa9336
e80d549b2afdc6c6706b807646b80371c904574aac59a88da3e38edf9beee39c83b1f770d576d040a49bc8881d7f7b7ad2bbd7e847d638e106ca5c9d845745cf
a5257eba54077ab5021166ac3753b7b847c6b1555096167c6e2c9428a427b45fb55aa79e2d78a7577f599b5942aea63b1a477f9adb6fca5560022da7636c6479
4b6085f2012636675a0aa31c52cddba976617f42cd5d956b4c27671258e4c01986438d1e16d759940a09064bb8f48cca536810d58885a2f7e4003fc239f6f56e
16e05e8d64c3946b706b807646b803716eac789fa26463b2a8fe95d3bc0e81fdb9b9d4a18abaa42668627e68b44dc0452f532bae5276a91f403ee581ee888250
2b3f0796f933b05a8c9982646412ce2609931c6632e2263f4305718b7b4d063bb985e21b67b63e6a630a2d05a37929ca3c18957e4da462a9b595c6014d72c502
5850c29efef7d428706b807646b8037170fe8f90aea9175329bac22ef6ef53d6df3049fe09f8c94f8ae82d0d5ad2506060a188d940e604c1ecf22f43cd602b91
44286f328a01b55967d2eff95da5627484dca83b953a8e598e1f68004bffe998f8a8540ab58237962e12af961c6ef22c254e47aac0ec032bdaa7b40aadc26676
4b6085f2012636675a0aa31c52cddba976617f42cd5d956b4c27671258e4c01986438d1e16d759940a09064bb8f48cca536810d58885a2f7e4003fc239f6f56e
b02a5531c46f3750706b807646b8037129d562b9587885b9954900b8cc37e18d8c8f7499dfa8f466c2a465b43e329fcc5e907deffd12c5fff9224a01a31d483a
b31205aa407e75cde847dda77d5f94434c27671258e4c01986438d1e16d759940a09064bb8f48cca536810d58885a2f77d67ff3244844dee7cee5fc2805eddfc
4b6085f2012636678ee5eab1ce21437b5cbc19469a9086ea47c6b1555096167c6e2c9428a427b45fb55aa79e2d78a7577f599b5942aea63b442a6204b13300a7
6a45fc4b439b6757706b807646b80371f15518302ece66cb4305718b7b4d063b41720b3a6115891a269cd6857c0fcaf409185e65c47467f9eab33c3d25fa9336
634645a61bedd7fc706b807646b80371f15518302ece66cbc0996ee0a6b29bee23bce6f7226acc639719bc0a329451d69246c564786288706368974253716c36
1632a67cf5c03a1a706b807646b803715fe739263f2eddb40d0f93f9f0505b78ab2c487c6d3d880936806a8e381bf9a04c27671258e4c019edf9617414cd3f43
e77c88095f9a58bd706b807646b80371c904574aac59a88ddc854d8fd8073b0936806a8e381bf9a04c27671258e4c01986438d1e16d75994694634ebdacaa746
c4aee1a60c1508e68c9982646412ce2609931c6632e2263fa7eeff398d568cdabe5cd95d0617090b56888adcd12906be86eb090f95cf2c1cd38aff4e12555a5d
6e5c39f8b11f63ec706b807646b8037132b716a46bf8c057374710a32780b6174817265c6b8e4de6d29c1a95e7f8f2f423bce6f7226acc635e60bc2e73fe25f8
3c4b13895afabd52ddb4b29aaeb56c8585fe8fa95eb853b1b06ef75b8289fd8d8492e52ca990713792b35fbc4ba24d2d270427569ffaa14fbfa0fc8258708962
a65a43029f41e214b5f1c17ee795630338641e3326a631842776c49faed5576f55f92f0be2fd1ce8c0a5bdef5ae9adc25b5066f4e30ecbd80a1a8b3710e4fc00
6b4611ad77aa6e83706b807646b8037123762c496e71a49601c2e11cfe3002c263561d6994a38c8684dca83b953a8e598e1f68004bffe998218cd0a1f7bec64e
8213cf8346d6bf71706b807646b803718d9096ef1198a4a3eb3a3d8f1837e5d2d7c5ffb30290128801be74738895a52473d9dc50e4e85c45abb485c8ac7a39ac
3c4b13895afabd52976633e3a662b0a885fe8fa95eb853b1c627fa475cb686198492e52ca9907137455a889af4c3ef06b3a5a2c4972331e89d6bedf9d0034ac8
e0f90b1a1f50cc17eaeaf4a48ef7ddb745d60f2a21326791e71f71e1875841714c27671258e4c01986438d1e16d759940a09064bb8f48ccabb26c10522c664c8
a777de8352b41f2a706b807646b8037123762c496e71a496cab0af1e63c312f1c2bafc2363bab8978ed858ae74f888db7373d203b9eebaa8534d925ed4e5dfb3
75963efd3ee34e16b03201548283802047c6b1555096167c6e2c9428a427b45fb55aa79e2d78a7577f599b5942aea63b1a477f9adb6fca5560022da7636c6479
bbf0a766f49a242c2637e9cac2aa5ceafd49a287c76beca9cf3db11be050388584dca83b953a8e598e1f68004bffe998f8a8540ab58237968745f0f67ef55c1a
3c4b13895afabd52e82f6bb07c49189ca377c6f71bdc1ee7525e9c6dcb58cec12a6db488d10d843f8792391bb7420d58c895977281e15e51d687b88663e41e66
bc8b5ced9da5cd976f2601ccf8f40e7a59eaa6573ad29cfe01a561e648b92d4dfa52237fdde26b4447c6b1555096167c6e2c9428a427b45f209feda867cf8d6a
e63fd7254c42e7e2706b807646b80371bdb85e61be6aa4dccf94ffa971680682042f0c0c78bb0deb84dca83b953a8e598e1f68004bffe998218cd0a1f7bec64e
3c4b13895afabd52628e6c2a84cc65dd85fe8fa95eb853b160408a7188aeb8318492e52ca9907137dab36317ce43a8e425a333149f91effade8095b7700af4ad
5a72473190e0c1c495733a93155592e2644126c9831a96bd4c27671258e4c01986438d1e16d759940a09064bb8f48cca536810d58885a2f7e4003fc239f6f56e
02673b7763e121d284dca83b953a8e598e1f68004bffe998f8a8540ab58237962e12af961c6ef22c254e47aac0ec032b1abcaaead17fedab4dacec5fe1b00f43
033357b74d735d0c706b807646b8037132b716a46bf8c0570691c831c732f6ca7fae57ba5733d1048c8f7499dfa8f466c2a465b43e329fcc7846daed4c599468
4f52237e05fcdaf4b31205aa407e75cde847dda77d5f94434c27671258e4c01986438d1e16d759940a09064bb8f48cca536810d58885a2f7e4003fc239f6f56e
4b6085f2012636678ee5eab1ce21437b8d2836105f25b9520f090d5b577179624c27671258e4c01986438d1e16d759940a09064bb8f48ccabb26c10522c664c8
8464d6d834784451706b807646b80371e0fdc6fc68559235ce965fbd056adbbd041d167dda25d0d38dcea2cdd2d3d5cc9783ae8e4821c68fb9549840541e7e65
2b1410deca799d73324c1ceef361270363f488593ed23b238e27f9447d516eab7703e2cb3efef19fadd93f2a12dabde1341a6b5a800be14571ce969966c057fc
4b6085f2012636675a0aa31c52cddba976617f42cd5d956b4c27671258e4c01986438d1e16d759940a09064bb8f48cca536810d58885a2f7e4003fc239f6f56e
1bac5285eba4baee706b807646b8037112bc19050497680173f1701d80c471916bdb6b4c6b960ef3d3a8a1a22039cd41a4ef700fb824f0256c22f8338c178f33
9783ae8e4821c68fa223a4da0518f3d6324c1ceef361270363f488593ed23b238e27f9447d516eab7703e2cb3efef19fadd93f2a12dabde194d9036eb2e12d38
8767f397bff4c3a731bbfa71d5efb6fe102372497787b35c324c1ceef361270363f488593ed23b238e27f9447d516eab7703e2cb3efef19f8141c47b75aa1b14
73bcd32e034b671d908295b3613f26e6dd71575317ab6e76d636a00fc168ab32044a83f6478a3687d3b99b01fef3c6447f9a7e9a7f48bd3eb610033194d8908b
d7971d4094ddc0728fac4affaac8e9d7f6c57157062f5a994c27671258e4c01986438d1e16d759940a09064bb8f48cca536810d58885a2f7e4003fc239f6f56e
e2a940f3b8cefa37324c1ceef361270363f488593ed23b238e27f9447d516eab7703e2cb3efef19fadd93f2a12dabde1341a6b5a800be14571ce969966c057fc
92079d3dcffacdc1706b807646b80371e0e648c9e309a7975941b2657235d0cc33a5a149e1816ebdb12bc01132f9f53923bce6f7226acc635e60bc2e73fe25f8
4f5c4fdab5bcabfd706b807646b8037123762c496e71a4965eb791455ecc0f5365cd4abfe554dfb6afae8eaec22010fe03ca750a29f6c982a15d0acc4e0de4b6
fd80f3b49cb1eb4ba286ab8191b330075911b2e9db277617a5257eba54077ab5021166ac3753b7b831bbfa71d5efb6fe825b843a3aa9ddcd1f5df8e6d7772bdd
3c4b13895afabd52c0e5a451d7ac39f668a4cde61e61e5c6df5eee899c729463ce5ec34e6f8ad1ca2683720a339db1645e7fed07307bc758b8c5dc0dca4a4a42
bc8b5ced9da5cd97d3a8a1a22039cd41019f1abd2f719221489ce9f90ce3975e5d2fc04ed74a40cf47c6b1555096167c6e2c9428a427b45f209feda867cf8d6a
144791171998e40e706b807646b8037123762c496e71a4963d8541ebecb668b11cfa682bfefb8526cb74a928cb5244a873d9dc50e4e85c45abb485c8ac7a39ac
1947d6e86bda0772706b807646b8037126974836ae1eace5babd2a932b400c4881d6dee17c1991e2efa9768674622437953ea2320b40c2c3f76b3240652ce98f
60a188d940e604c16594e2ecfdcb7f14324c1ceef361270363f488593ed23b238e27f9447d516eab7703e2cb3efef19fadd93f2a12dabde194d9036eb2e12d38
bbf0a766f49a242c2637e9cac2aa5ceafd49a287c76beca9cf3db11be050388584dca83b953a8e598e1f68004bffe998f8a8540ab58237968745f0f67ef55c1a
d3a4214a6982e898706b807646b8037123762c496e71a49690f104c583e994f5ec30897268050c5823bce6f7226acc639719bc0a329451d6cd4adb71031114d7
73bcd32e034b671d61e7d90d036bba93dd71575317ab6e7623e9d9bfa02e59df23762c496e71a4966985edfdd583f0e9dad4bb70f534f24cee7245f8530d1fff
32cd76a2a36328a9de828eafb3df2f524af53d0db446dbd52c3101be0216a0e7050518155fdf2bcdd6ca64f57948adec289dd6aed7b6e31e97c0ebf734830956
db550816ecaca3929cf76ef33b98a8542f558e16bda7b9848b5a704085960a035a31deb169a46decff3770f47ed21aaad527bd406edf8241cf154a5d4f8f13bd
e2a940f3b8cefa37324c1ceef361270363f488593ed23b238e27f9447d516eab7703e2cb3efef19fadd93f2a12dabde1341a6b5a800be14571ce969966c057fc
b66336a306e3293e706b807646b803711e4152dc67d9991447cfaad7776e62735ca1ade117ab24d33ee3f6548855b56463a7a4a661f839d1a252aed33c6a1a51
4080be4a91b0396675963efd3ee34e1647c6b1555096167c6e2c9428a427b45fb55aa79e2d78a7577f599b5942aea63b1a477f9adb6fca5560022da7636c6479
cdaa385411811e27bfd81d659a09e4b32637e9cac2aa5ceafd49a287c76beca9cf3db11be050388584dca83b953a8e598e1f68004bffe998218cd0a1f7bec64e
44ca910fb0bf066e706b807646b803718d9096ef1198a4a36c9775193ceba939ba105b629766a2e000d3e0b087c7374423bce6f7226acc635e60bc2e73fe25f8
da506fb104c15106706b807646b80371e0e648c9e309a79743691f1a610f309fda91f89291855a7d62d766f77596a54b324c1ceef36127031896c1788d506795
cd5ee2c6b035e5aa706b807646b8037106da60b7c83044f75485824445f5bf99801ebf4d636b58c3644126c9831a96bd4c27671258e4c019edf9617414cd3f43
2ab271aa325bb6fa706b807646b8037123762c496e71a496057200f4b24a3448d49bb02115fcc8be2a28d63fb3680ff5d00c28cee29fdb9a8349e2d90ca822ec
82608cee67f235f6706b807646b803716b7d8a8ce0a5a852d096ffc1e52676c42c6ae38325f3cd147c96d8f9250eb0c884dca83b953a8e59055086a7ae2b8d29
0d0ca6724e3950ee706b807646b803718d9096ef1198a4a39473bfe944845555642847d5ad24666d189dc4f66c3a4dad49bcb2e9b7241eb49d6bedf9d0034ac8
70530f270ba44e3f706b807646b8037123762c496e71a496967e98d94227978d3791b150969c7a892a28d63fb3680ff5d00c28cee29fdb9a8349e2d90ca822ec
3c4b13895afabd52525f4881cdcee43cf672b2d4f1a1cf4e8492e52ca99071373360b3b2bcd4874aa5e5aee3bb22a31a03ddae67a10b70809c7a4bc0de56f663
ef123665f1f5b326706b807646b8037123762c496e71a496def48632984dec5736806a8e381bf9a04c27671258e4c01986438d1e16d75994694634ebdacaa746
ca918dc8a9514383706b807646b8037123762c496e71a496374b5b91b8d89c32e10f5fc76cec42df78d36615595502ad5207f1c09ed85199592785e38180fd63
5f5f85cd7d7292672a28d63fb3680ff5d00c28cee29fdb9acf244a0edf9ed7607554c631fe98b6d2f9af57fbdd617768a42ab2c0e7ad42c9cb9f33fe07626821
fd80f3b49cb1eb4ba286ab8191b330075911b2e9db277617a5257eba54077ab5021166ac3753b7b831bbfa71d5efb6fe825b843a3aa9ddcd1f5df8e6d7772bdd
1ad7dd89853244fb706b807646b803713231811c9fb0f79b532923d91b69a7faba105b629766a2e000d3e0b087c7374423bce6f7226acc635e60bc2e73fe25f8
5abaf9c8e0524483706b807646b8037123762c496e71a4966e8ec11a72d07d96d49bb02115fcc8be2a28d63fb3680ff5d00c28cee29fdb9a8349e2d90ca822ec
7b969690823e6c0a706b807646b8037123762c496e71a49641c87b796c01d0df36806a8e381bf9a04c27671258e4c01986438d1e16d75994694634ebdacaa746
66957c1c736321ac706b807646b803718d9096ef1198a4a3181eedb1e5366aa473d41bdf741e061d8818111c4cf0697b303d7240d8c3139deab33c3d25fa9336
9748199541eff328706b807646b80371c67b1ed04bf4dd439d27c9473c50b5874256f6866bad81516b7b5c36d83c10a94ebbf66ab2950626c47ca81a37fbb4b6
fd80f3b49cb1eb4ba286ab8191b330075911b2e9db277617a5257eba54077ab5021166ac3753b7b831bbfa71d5efb6fe825b843a3aa9ddcd1f5df8e6d7772bdd
35c798a0f8e09af8706b807646b8037123762c496e71a496597e72c9eb093f5639859341766fc92c4c27671258e4c01986438d1e16d75994694634ebdacaa746
24a2eabdbe44dc0a706b807646b8037168ebe8152eedafcb169c9b27004d781803f738eb6345e26296fa05f0b3a1787e608e5066341ff6bdeab33c3d25fa9336
10714502bf79f88d706b807646b8037123762c496e71a496897335dc3bf9d1a2a7cc903405158d0a23bce6f7226acc639719bc0a329451d6cd4adb71031114d7
8b665c4c98bea2b1706b807646b803718d9096ef1198a4a3b16a50a2bb9d18a57faf852407cb14f1cb12d0fad2c59dfd303d7240d8c3139deab33c3d25fa9336
4dbea1e7d31c7dd9706b807646b8037123762c496e71a49641745f332c94126e3342ec681d4e758948e05dd253a72a63033601d873fa4d9aee35f2e4806b4a5a
b60305a69571cbc0b045c149b70fbd51324c1ceef361270363f488593ed23b238e27f9447d516eab7703e2cb3efef19fadd93f2a12dabde194d9036eb2e12d38
cdaa385411811e27bfd81d659a09e4b32637e9cac2aa5cea2cecad1ebf804c4bf467148f06ca8e4338641e3326a631842776c49faed5576f7ba7b08b1a9139f2
3c4b13895afabd52a84ecbc7159c51ad6c8e8d46dc2545b2f189884b6c55ca0366eaeb9fc4cc8ae135847b27624404269b9ff5ceeff9eb71ee79dba6da001cdc
b5f1c17ee795630338641e3326a631842776c49faed5576f55f92f0be2fd1ce8c0a5bdef5ae9adc25b5066f4e30ecbd83de11ad493e76c3f465402c55cfe2b72
2ed691371db6badf706b807646b8037123762c496e71a4968b26cabcfab1bd7b2c5c6a78640b9d2723bce6f7226acc639719bc0a329451d6cd4adb71031114d7
93321c0b958a78bb706b807646b8037123762c496e71a49641745f332c94126ed1853a4df7f780443572825757e592ec1933952b4dcad44cd38aff4e12555a5d
c80587249d2ad0a3706b807646b80371f4c12916a44cc61815b982de36113eb86ec61fa9ac35eaaf5c99c8f72e918a2349bcb2e9b7241eb49d6bedf9d0034ac8
c2bd63b0ac96d30e706b807646b80371f4c12916a44cc6186ed350c91ebb8a216ec61fa9ac35eaaf153953797e7888ca62d766f77596a54b403ee581ee888250
488805d891bf92e6706b807646b80371d4f9b049ffac7be8c6abd5a974cc3256b708b2a5bd1f785b3a8daa6df3306add7662f9e929a451ee450139be464a895d
b032015482838020d2208d979160a902824c627622df74ab105a25debc97a23ff58aaf56235b0f803c02e8c93a093897995814b55317358e86bfca48d5cf35d3
8767f397bff4c3a731bbfa71d5efb6fe102372497787b35c324c1ceef361270363f488593ed23b238e27f9447d516eab7703e2cb3efef19f8141c47b75aa1b14
fef5a80dd20f2c7b706b807646b8037138799e9c254176c68361c3811a1e98aa7fae57ba5733d1040b3236908a845a5dccb1eb72c909ff1be4e72beed32b1f99
5911b2e9db27761795d7fcca0b5012cc23bce6f7226acc639719bc0a329451d69246c56478628870c6f822b1bf48ae9eb835abb8f6e76aa03e30088bec370e46
bbf0a766f49a242c2637e9cac2aa5ceafd49a287c76beca9cf3db11be050388584dca83b953a8e598e1f68004bffe998f8a8540ab58237968745f0f67ef55c1a
5ce56fbac3efb003706b807646b80371f4c12916a44cc618d9e39b4be22e78efec673e334d6e7ccd24fdfd9bb2e10b072a28d63fb3680ff5b8c25bc7a5ff0a44
a59f064dc4f9734cfbdef233ba46c509eebde083d5ede0f9b7a362880c9f283c9116785cdcd90e6dd3ed529e2f03bd0d2a28d63fb3680ff5b8c25bc7a5ff0a44
494dac2fba9db135706b807646b8037123762c496e71a4965b73f86697ffadca26515cd090c7b42ec2bafc2363bab897d229bfbf6a3fda465383172a488194ed
0a5051e40e9854a538641e3326a631842776c49faed5576f55f92f0be2fd1ce8c0a5bdef5ae9adc25b5066f4e30ecbd83de11ad493e76c3f465402c55cfe2b72
fd80f3b49cb1eb4ba286ab8191b330075911b2e9db277617a5257eba54077ab5021166ac3753b7b831bbfa71d5efb6fe825b843a3aa9ddcd1f5df8e6d7772bdd
68d7ad0785bc4ecf706b807646b803711eb7b71e3a90ea7d013d7a9133b1a1cd0ac20a7b2aad38ee391b668d2b5a4633589af0812576e61b450139be464a895d
b032015482838020d2208d979160a902824c627622df74ab105a25debc97a23ff58aaf56235b0f803c02e8c93a093897995814b55317358e86bfca48d5cf35d3
8767f397bff4c3a731bbfa71d5efb6fe102372497787b35c324c1ceef361270363f488593ed23b238e27f9447d516eab7703e2cb3efef19f8141c47b75aa1b14
8e1bb7ece036b354706b807646b80371d7a1a5dc8cce27aca9bbd883f9dc6d1bca7271defaf9b526442878c31e3211ef60a188d940e604c1ecf22f43cd602b91
44286f328a01b55967d2eff95da5627484dca83b953a8e598e1f68004bffe998f8a8540ab58237962e12af961c6ef22c254e47aac0ec032bdaa7b40aadc26676
4b6085f2012636675a0aa31c52cddba976617f42cd5d956b4c27671258e4c01986438d1e16d759940a09064bb8f48cca536810d58885a2f7e4003fc239f6f56e
dc3a3039e03dc0b0706b807646b8037123762c496e71a496e44893dde5310340c83b49c8a726975c23bce6f7226acc639719bc0a329451d6cd4adb71031114d7
3c4b13895afabd525bd1d958b85c63375dbc7a5678f10325930fe97e801cee5e6b574213c15e8d898b374c0bf583940f4a95659232f3de67b595c6014d72c502
054b0892a414eccbd9be2e3cbe5a32f26ff20d020fae8d58a49d32cbedc23d04e73070a45f1d549c2a28d63fb3680ff5d00c28cee29fdb9a8349e2d90ca822ec
d4ad3fb08d9ca68f706b807646b803715b9e1c3fc8b55ccfb727347f43209366824c627622df74ab105a25debc97a23ff58aaf56235b0f80057db94e00c7eddb
28d59fab2c1df238706b807646b803711e4152dc67d99914864dd89ce94212e1ba105b629766a2e000d3e0b087c7374423bce6f7226acc635e60bc2e73fe25f8
0ba7a8c306bec0d5706b807646b80371545f319172149ebe23762c496e71a4966cd2817b91b85d34c2bafc2363bab89732bb11f1f7c653c6f6d0ed145ce58a37
803760760252973e38641e3326a631842776c49faed5576f55f92f0be2fd1ce8c0a5bdef5ae9adc25b5066f4e30ecbd83de11ad493e76c3f465402c55cfe2b72
fd80f3b49cb1eb4ba286ab8191b330075911b2e9db277617a5257eba54077ab5021166ac3753b7b831bbfa71d5efb6fe825b843a3aa9ddcd1f5df8e6d7772bdd
398a0fe29226a61b706b807646b8037123762c496e71a496f0b2fa9c54552a3261096b1686c08aee442878c31e3211ef60a188d940e604c1ecf22f43cd602b91
44286f328a01b55967d2eff95da5627484dca83b953a8e598e1f68004bffe998f8a8540ab58237962e12af961c6ef22c254e47aac0ec032bdaa7b40aadc26676
4b6085f2012636675a0aa31c52cddba976617f42cd5d956b4c27671258e4c01986438d1e16d759940a09064bb8f48cca536810d58885a2f7e4003fc239f6f56e
57e84de582209c03706b807646b8037123762c496e71a496c2f876c21d3383742c5c6a78640b9d2723bce6f7226acc639719bc0a329451d6cd4adb71031114d7
1cb1ca31dddef083874821d1fdeab908b7a362880c9f283c2f56d785cd6198b7585377f94a47e2bc4bd8b30dca3d1108cdbbb8dee9959017eab33c3d25fa9336
1f0a23d42dc4dcc8706b807646b803718d9096ef1198a4a370bfa8c9f77cc0cd9402e085627be4f78dcea2cdd2d3d5cc9783ae8e4821c68fb9549840541e7e65
2b1410deca799d73324c1ceef361270363f488593ed23b238e27f9447d516eab7703e2cb3efef19fadd93f2a12dabde1341a6b5a800be14571ce969966c057fc
4b6085f2012636676f3085441f0c7a2a824c627622df74ab105a25debc97a23ff58aaf56235b0f803c02e8c93a093897995814b55317358e86bfca48d5cf35d3
b3b93a3c4be48be9706b807646b8037112bc1905049768015257fb4cd8bdff457c4fda737e3bb4de9c99a6f8ecce348375963efd3ee34e160ff63032dc4e41c4
bfd81d659a09e4b3d24b51ea77d68888824c627622df74ab105a25debc97a23ff58aaf56235b0f803c02e8c93a093897995814b55317358e86bfca48d5cf35d3
4b6085f2012636678ee5eab1ce21437b5a4bb853a3da5ed0e758cb6a7223174438641e3326a631842776c49faed5576f55f92f0be2fd1ce8ccf85bd99c9730d3
47cd1b52d28d61a2706b807646b8037123762c496e71a4962955853044a5a322ec30897268050c5823bce6f7226acc639719bc0a329451d6cd4adb71031114d7
108ed8f38c03d4dd85fe8fa95eb853b1e7a07d355cf983c25946102a036bc76e36461348ef17917c47c6b1555096167c6e2c9428a427b45f209feda867cf8d6a
3c4b13895afabd5208e79cbf8de54de385fe8fa95eb853b1039f3c7a8491874a8492e52ca99071371a289986138e8f3b8aa8e3c03de8172c484379fba1bca2d2
2726216fa5a94a92fbdef233ba46c509253e27cea553c1dbeb50f824132ae2f2644126c9831a96bd4c27671258e4c01986438d1e16d75994694634ebdacaa746
a2cf111b73228f89706b807646b803714a5909b3f4f6bf9a80e3bb36bdea39d407243757083cfd0b2f532bae5276a91f324c1ceef36127031896c1788d506795
694e5cbfe8928e6d706b807646b8037155e24800fd6d4ae3336dc66acd32575084dca83b953a8e598e1f68004bffe998f8a8540ab58237968745f0f67ef55c1a
3820faac75e3fb74706b807646b80371316ce4238099ab4bb674f9b4cc7da5b22a28d63fb3680ff5d00c28cee29fdb9acf244a0edf9ed76019bf6896db9e69d6
1f04c531558121a2706b807646b80371de30cc89a2109ba1565779ec3d0a50ca0d85d7d7750f86ad47c6b1555096167c6e2c9428a427b45f209feda867cf8d6a
48f3f97bbe41eb32525f4881cdcee43c5d9529c94047aa26d46bb698caa5957566eaeb9fc4cc8ae1737ed9d0fbcaa166c6fd7ecebf4b62776bf799adb1382660
e73070a45f1d549c2a28d63fb3680ff5d00c28cee29fdb9acf244a0edf9ed7607554c631fe98b6d2f9af57fbdd617768a42ab2c0e7ad42c9cb9f33fe07626821
6a1ae880865b1b46706b807646b8037182c66cdfcb49a15ce6f728924fc9d29a2a28d63fb3680ff5d00c28cee29fdb9acf244a0edf9ed76019bf6896db9e69d6
8f6bad1ea32cf61a61e7d90d036bba93f8eb81bd9d5bdfc88ff5450043778c0fbe02c99c5c87d5998143a204c96cbea58bf27531cf35c57c0aeadc646b0bd5ff
b5f1c17ee795630338641e3326a631842776c49faed5576f55f92f0be2fd1ce8c0a5bdef5ae9adc25b5066f4e30ecbd83de11ad493e76c3f465402c55cfe2b72
e77b98cddacafe77706b807646b80371fde327d98aac63addff09001228a85cb09cd145a948474ce644126c9831a96bd4c27671258e4c019edf9617414cd3f43
48f3f97bbe41eb3208e79cbf8de54de3913ee4035980701fcd69556d43a387308492e52ca9907137f6953e0885686577c02d85c6c46492d0f05a17f2007986aa
f44496155f03ed4f324c1ceef361270363f488593ed23b238e27f9447d516eab7703e2cb3efef19fadd93f2a12dabde1341a6b5a800be14571ce969966c057fc
1781d70635e56fc2706b807646b8037155e24800fd6d4ae3183e98834e25cdc184dca83b953a8e598e1f68004bffe998f8a8540ab58237968745f0f67ef55c1a
be00a3ef7d9f247c706b807646b80371fde327d98aac63ad2f8bf768c1dd2b560002954bcbcfe4e0324c1ceef361270363f488593ed23b239ee033e22523808c
86dbd44cb38a6f8a706b807646b80371cc49dd808b87c8c756131ddffe8b65361933952b4dcad44c47c6b1555096167c6e2c9428a427b45f209feda867cf8d6a
e60fe0b333f49fca706b807646b80371d9315a17d1e77a99f6b416f84d54d6583f73c7c5f2cee3a42a28d63fb3680ff5d00c28cee29fdb9a8349e2d90ca822ec
70a450a1cb24f987706b807646b80371d0e5b4432ff38c72ca76818d9096aa3c868e8936fc8fa86f824c627622df74ab105a25debc97a23fc2b2e03305a8c1a7
48f3f97bbe41eb32cd9f9b0fe66d8ad1880bf70e80284a91f1d0474f1e1cedaace5ec34e6f8ad1cac155dc336fd4118ce94986c2189b966e1f5df8e6d7772bdd
3e89966d7aea4e2e87862d153f5a6f270203fc4ca5cf2336b143fc6f6d89f0ef84dca83b953a8e598e1f68004bffe998f8a8540ab58237968745f0f67ef55c1a
f96f9233e239eff3706b807646b80371fde327d98aac63adafdec40cae8fe10160080e0c7ac47a8c644126c9831a96bd4c27671258e4c019edf9617414cd3f43
0252cfbe9e0e10f2706b807646b8037154d82989d76e7851eb4550cd3e10ed143f1a16f706f2f3e2b5ecc6bb70745c15824c627622df74ab7486eae265df2c64
5b835cb0f08f07711aabf11df8bc7d16d92001a02f1a9b99bbc6875f6551a61f63cada8fbd827e5d2297991796ed3efb593efcd58d475ce1450139be464a895d
b032015482838020d2208d979160a902824c627622df74ab105a25debc97a23ff58aaf56235b0f803c02e8c93a093897995814b55317358e86bfca48d5cf35d3
8767f397bff4c3a731bbfa71d5efb6fe825b843a3aa9ddcd23bce6f7226acc639719bc0a329451d69246c56478628870c6f822b1bf48ae9ec5e9103f3ddfd7fc
cc09709c562a8286706b807646b8037193291b080b69e16f5a30507db277e982f467148f06ca8e4338641e3326a631842776c49faed5576f7ba7b08b1a9139f2
60b1672342cbfbd2706b807646b80371c7e6deee02c6499f26711aab1925cf22c1d303cdb19fdcefc2e5ba7c47b9da5d5f2e393690f1c60cf3ba4b380761d1e6
fb10ff64cffca9e9e352547a256da427324c1ceef361270363f488593ed23b238e27f9447d516eab7703e2cb3efef19fadd93f2a12dabde194d9036eb2e12d38
cdaa385411811e27bfd81d659a09e4b32637e9cac2aa5cea2cecad1ebf804c4bf467148f06ca8e4338641e3326a631842776c49faed5576f7ba7b08b1a9139f2
ec1d70e83eed7ea7706b807646b80371c7e6deee02c6499f386f57adb4196b91a5e41a9333d4c1f5211b5eb199d160373ed9cadca6f11f5cf3ba4b380761d1e6